	/*--------------------------------*- C++ -*----------------------------------*\
| =========                 |                                                 |
| \\      /  F ield         | OpenFOAM: The Open Source CFD Toolbox           |
|  \\    /   O peration     | Version:  2.3.1                                 |
|   \\  /    A nd           | Web:      www.OpenFOAM.org                      |
|    \\/     M anipulation  |                                                 |
\*---------------------------------------------------------------------------*/
FoamFile
{
    version     2.0;
    format      ascii;
    class       dictionary;
    location    "constant";
    object      dynamicMeshDict;
}
// * * * * * * * * * * * * * * * * * * * * * * * * * * * * * * * * * * * * * //

dynamicFvMesh   dynamicRefineMRAFvMesh;


dynamicRefineMRAFvMeshCoeffs
{
	// Does every cell in the mesh have a parent?
	isMeshInitialRefined	false;

    // How often to refine
    refineInterval  		1;

    // Field to be refinement on
    field           		alpha.water1;

    // Desired accuracy
    fverror                 0.01;

	// Refine cells only up to maxRefinement levels
    maxRefinement   		4;

    // The level at which the absolute accuracy criterion is applied
    accuracyLevel           3;

    // Unrefine only if the detail is this fraction of the threshold
    unrefTriggerFrac		1;

    // Have slower than 2:1 refinement
    nBufferLayers   		0;

    // Stop refinement if maxCells reached
    maxCells        		1000000;


    // Flux field and corresponding velocity field. Fluxes on changed
    // faces get recalculated by interpolating the velocity. Use 'none'
    // on surfaceScalarFields that do not need to be reinterpolated.
    correctFluxes
    (
        (phi U)
        (nHatf U)
        (rhoPhi U)
        (ghf none)
		(alphaPhi none)
		(phiAlpha none)
    );

    // Write the refinement level as a volScalarField
    dumpLevel       true;
	dumpID			false;
    

    // Load balancing

    enableBalancing			true;

    allowableImbalance		0.1;
}


// ************************************************************************* //
